Version 4.1
SHEET 1 1532 684
WIRE -96 96 -96 -16
WIRE 16 96 -96 96
WIRE 288 96 288 -16
WIRE 336 96 288 96
WIRE 592 96 592 -16
WIRE 672 96 592 96
WIRE 912 96 912 -16
WIRE 992 96 912 96
WIRE -240 128 -240 -112
WIRE 16 128 -240 128
WIRE 208 128 160 128
WIRE 240 128 240 -112
WIRE 336 128 240 128
WIRE 528 128 480 128
WIRE 560 128 560 -112
WIRE 672 128 560 128
WIRE 864 128 816 128
WIRE 880 128 880 -112
WIRE 992 128 880 128
WIRE 1408 128 1136 128
WIRE 16 160 -336 160
WIRE 192 160 160 160
WIRE 208 160 208 128
WIRE 336 160 208 160
WIRE 512 160 480 160
WIRE 528 160 528 128
WIRE 672 160 528 160
WIRE 848 160 816 160
WIRE 864 160 864 128
WIRE 992 160 864 160
WIRE 1168 160 1136 160
WIRE 16 192 -32 192
WIRE 336 192 288 192
WIRE 672 192 624 192
WIRE 992 192 944 192
WIRE -336 224 -336 160
WIRE 192 320 192 160
WIRE 512 320 512 160
WIRE 848 320 848 160
WIRE 1168 320 1168 160
WIRE -32 400 -32 192
WIRE 288 400 288 192
WIRE 288 400 -32 400
WIRE 464 400 288 400
WIRE 624 400 624 192
WIRE 624 400 464 400
WIRE 944 400 944 192
WIRE 944 400 624 400
WIRE 464 576 464 400
FLAG -336 224 0
FLAG -96 -16 A0
IOPIN -96 -16 In
FLAG 288 -16 A1
IOPIN 288 -16 In
FLAG 592 -16 A2
IOPIN 592 -16 In
FLAG 912 -16 A3
IOPIN 912 -16 In
FLAG -240 -112 B0
IOPIN -240 -112 In
FLAG 240 -112 B1
IOPIN 240 -112 In
FLAG 560 -112 B2
IOPIN 560 -112 In
FLAG 880 -112 B3
IOPIN 880 -112 In
FLAG 192 320 S0
IOPIN 192 320 Out
FLAG 512 320 S1
IOPIN 512 320 Out
FLAG 848 320 S2
IOPIN 848 320 Out
FLAG 1168 320 S3
IOPIN 1168 320 Out
FLAG 1408 128 COUT
IOPIN 1408 128 Out
FLAG 464 576 VDD
IOPIN 464 576 In
SYMBOL FullAdder 80 144 R0
SYMATTR InstName X1
SYMBOL FullAdder 400 144 R0
SYMATTR InstName X2
SYMBOL FullAdder 736 144 R0
SYMATTR InstName X3
SYMBOL FullAdder 1056 144 R0
SYMATTR InstName X4
