Version 4.1
SHEET 1 1532 684
WIRE -176 -480 -448 -480
WIRE 32 -480 -176 -480
WIRE 208 -480 208 -576
WIRE 208 -480 32 -480
WIRE 368 -480 208 -480
WIRE 672 -480 368 -480
WIRE -400 -272 -512 -272
WIRE 80 -272 -32 -272
WIRE 400 -272 320 -272
WIRE 704 -272 624 -272
WIRE -448 -240 -448 -480
WIRE -400 -240 -448 -240
WIRE -240 -240 -272 -240
WIRE 32 -240 32 -480
WIRE 80 -240 32 -240
WIRE 240 -240 208 -240
WIRE 368 -240 368 -480
WIRE 400 -240 368 -240
WIRE 560 -240 528 -240
WIRE 672 -240 672 -480
WIRE 704 -240 672 -240
WIRE 880 -240 832 -240
WIRE -400 -208 -448 -208
WIRE 80 -208 0 -208
WIRE 400 -208 320 -208
WIRE 704 -208 656 -208
WIRE -96 96 -96 -16
WIRE 16 96 -96 96
WIRE 288 96 288 -16
WIRE 336 96 288 96
WIRE 592 96 592 -16
WIRE 672 96 592 96
WIRE 912 96 912 -16
WIRE 992 96 912 96
WIRE -240 128 -240 -240
WIRE 16 128 -240 128
WIRE 208 128 160 128
WIRE 240 128 240 -240
WIRE 336 128 240 128
WIRE 528 128 480 128
WIRE 560 128 560 -240
WIRE 672 128 560 128
WIRE 864 128 816 128
WIRE 880 128 880 -240
WIRE 992 128 880 128
WIRE 1408 128 1136 128
WIRE -176 160 -176 -480
WIRE 16 160 -176 160
WIRE 192 160 160 160
WIRE 208 160 208 128
WIRE 336 160 208 160
WIRE 512 160 480 160
WIRE 528 160 528 128
WIRE 672 160 528 160
WIRE 848 160 816 160
WIRE 864 160 864 128
WIRE 992 160 864 160
WIRE 1168 160 1136 160
WIRE 16 192 -32 192
WIRE 336 192 288 192
WIRE 672 192 624 192
WIRE 992 192 944 192
WIRE 192 320 192 160
WIRE 512 320 512 160
WIRE 848 320 848 160
WIRE 1168 320 1168 160
WIRE -448 400 -448 -208
WIRE -32 400 -32 192
WIRE -32 400 -448 400
WIRE 0 400 0 -208
WIRE 0 400 -32 400
WIRE 288 400 288 192
WIRE 288 400 0 400
WIRE 320 400 320 -208
WIRE 320 400 288 400
WIRE 464 400 320 400
WIRE 624 400 624 192
WIRE 624 400 464 400
WIRE 656 400 656 -208
WIRE 656 400 624 400
WIRE 944 400 944 192
WIRE 944 400 656 400
WIRE 464 576 464 400
FLAG -96 -16 A0
IOPIN -96 -16 In
FLAG 288 -16 A1
IOPIN 288 -16 In
FLAG 592 -16 A2
IOPIN 592 -16 In
FLAG 912 -16 A3
IOPIN 912 -16 In
FLAG 192 320 S0
IOPIN 192 320 Out
FLAG 512 320 S1
IOPIN 512 320 Out
FLAG 848 320 S2
IOPIN 848 320 Out
FLAG 1168 320 S3
IOPIN 1168 320 Out
FLAG 1408 128 COUT
IOPIN 1408 128 Out
FLAG 464 576 VDD
IOPIN 464 576 In
FLAG -512 -272 B0
IOPIN -512 -272 In
FLAG -32 -272 B1
IOPIN -32 -272 In
FLAG 320 -272 B2
IOPIN 320 -272 In
FLAG 624 -272 B3
IOPIN 624 -272 In
FLAG 208 -576 SUB
IOPIN 208 -576 In
SYMBOL FullAdder 80 144 R0
SYMATTR InstName X1
SYMBOL FullAdder 400 144 R0
SYMATTR InstName X2
SYMBOL FullAdder 736 144 R0
SYMATTR InstName X3
SYMBOL FullAdder 1056 144 R0
SYMATTR InstName X4
SYMBOL XOR2 144 -240 R0
SYMATTR InstName X6
SYMBOL XOR2 464 -240 R0
SYMATTR InstName X7
SYMBOL XOR2 768 -240 R0
SYMATTR InstName X8
SYMBOL XOR2 -336 -240 R0
SYMATTR InstName X5
