Version 4.1
SHEET 1 880 680
WIRE 176 112 80 112
WIRE 400 128 368 128
WIRE 176 144 48 144
WIRE 368 144 368 128
WIRE 368 144 304 144
WIRE 656 144 528 144
WIRE 400 160 368 160
WIRE 176 176 144 176
WIRE 144 240 144 176
WIRE 272 240 144 240
WIRE 368 240 368 160
WIRE 368 240 272 240
WIRE 272 336 272 240
FLAG 80 112 IN1
IOPIN 80 112 In
FLAG 48 144 IN2
IOPIN 48 144 In
FLAG 656 144 OUT
IOPIN 656 144 Out
FLAG 272 336 VDD
IOPIN 272 336 In
SYMBOL NAND2 240 144 R0
SYMATTR InstName X1
SYMBOL NOT1 464 144 R0
SYMATTR InstName X2
