Version 4
SHEET 1 1352 1984
WIRE 0 160 -128 160
WIRE 0 192 -96 192
WIRE 272 192 128 192
WIRE 0 224 -16 224
WIRE -352 320 -416 320
WIRE -96 320 -96 192
WIRE 0 320 -96 320
WIRE -416 336 -416 320
WIRE -416 336 -1024 336
WIRE 272 336 272 192
WIRE 384 336 272 336
WIRE 512 336 384 336
WIRE -352 352 -496 352
WIRE -128 352 -128 160
WIRE -128 352 -224 352
WIRE -352 384 -368 384
WIRE 0 416 0 320
WIRE 464 416 0 416
WIRE 384 464 384 336
WIRE 384 464 0 464
WIRE -496 480 -496 352
WIRE -496 480 -624 480
WIRE -1024 544 -1024 336
WIRE -800 544 -1024 544
WIRE -288 544 -352 544
WIRE 144 544 80 544
WIRE -352 560 -352 544
WIRE -352 560 -672 560
WIRE 0 560 0 464
WIRE 80 560 80 544
WIRE 80 560 0 560
WIRE -800 576 -816 576
WIRE -288 576 -400 576
WIRE -80 576 -160 576
WIRE 144 576 16 576
WIRE 464 576 464 416
WIRE 464 576 272 576
WIRE 512 576 464 576
WIRE -1024 608 -1024 544
WIRE -1024 608 -1136 608
WIRE -288 608 -304 608
WIRE 144 608 128 608
WIRE -80 688 -80 576
WIRE 16 688 16 576
WIRE 16 688 -80 688
WIRE -624 704 -624 480
WIRE -400 704 -400 576
WIRE -400 704 -624 704
WIRE -624 752 -624 704
FLAG 512 336 Q
IOPIN 512 336 Out
FLAG 512 576 Qbar
IOPIN 512 576 Out
FLAG -816 576 VDD
IOPIN -816 576 In
FLAG -368 384 VDD
IOPIN -368 384 In
FLAG -304 608 VDD
IOPIN -304 608 In
FLAG -16 224 VDD
IOPIN -16 224 In
FLAG 128 608 VDD
IOPIN 128 608 In
FLAG -1136 608 D
IOPIN -1136 608 In
FLAG -624 752 CLK
IOPIN -624 752 In
SYMBOL NAND2 -288 352 R0
SYMATTR InstName NAND1
SYMBOL NAND2 -224 576 R0
SYMATTR InstName NAND2
SYMBOL NAND2 64 192 R0
SYMATTR InstName NAND3
SYMBOL NAND2 208 576 R0
SYMATTR InstName NAND4
SYMBOL NOT1 -736 560 R0
SYMATTR InstName NOT1
