Version 4.1
SHEET 1 880 828
WIRE 48 144 -32 144
WIRE 224 160 176 160
WIRE 48 176 0 176
WIRE 272 240 176 240
WIRE 224 272 224 160
WIRE 272 272 224 272
WIRE 464 272 400 272
WIRE 272 304 192 304
WIRE 464 304 464 272
WIRE 512 304 464 304
WIRE 512 336 464 336
WIRE 720 336 640 336
WIRE 512 368 480 368
WIRE 272 400 176 400
WIRE -32 432 -32 144
WIRE 272 432 -32 432
WIRE 464 432 464 336
WIRE 464 432 400 432
WIRE 272 464 240 464
WIRE 0 624 0 176
WIRE 192 624 192 304
WIRE 192 624 0 624
WIRE 224 624 192 624
WIRE 240 624 240 464
WIRE 240 624 224 624
WIRE 480 624 480 368
WIRE 480 624 240 624
WIRE 224 720 224 624
FLAG -32 144 S
IOPIN -32 144 In
FLAG 176 240 D0
IOPIN 176 240 In
FLAG 176 400 D1
IOPIN 176 400 In
FLAG 720 336 OUT
IOPIN 720 336 Out
FLAG 224 720 VDD
IOPIN 224 720 In
SYMBOL NOT1 112 160 R0
SYMATTR InstName X1
SYMBOL AND2 336 272 R0
SYMATTR InstName X2
SYMBOL AND2 336 432 R0
SYMATTR InstName X3
SYMBOL OR2 576 336 R0
SYMATTR InstName X4
