Version 4.1
SHEET 1 880 764
WIRE 16 -16 -112 -16
WIRE 16 16 -64 16
WIRE 304 32 144 32
WIRE 16 48 -48 48
WIRE 16 80 -32 80
WIRE 304 128 304 32
WIRE 336 128 304 128
WIRE -48 160 -48 48
WIRE -48 160 -272 160
WIRE 336 160 304 160
WIRE 608 176 464 176
WIRE 336 192 320 192
WIRE 336 224 192 224
WIRE 16 256 -112 256
WIRE 16 288 -64 288
WIRE 304 304 304 160
WIRE 304 304 144 304
WIRE -48 320 -48 160
WIRE 16 320 -48 320
WIRE 16 352 -16 352
WIRE 320 432 320 192
WIRE -32 560 -32 80
WIRE -16 560 -16 352
WIRE -16 560 -32 560
WIRE 96 560 -16 560
WIRE 192 560 192 224
WIRE 192 560 96 560
WIRE 96 656 96 560
FLAG -112 -16 D0
IOPIN -112 -16 In
FLAG -64 16 D1
IOPIN -64 16 In
FLAG -112 256 D2
IOPIN -112 256 In
FLAG -64 288 D3
IOPIN -64 288 In
FLAG 608 176 OUT
IOPIN 608 176 Out
FLAG -272 160 S0
IOPIN -272 160 In
FLAG 320 432 S1
IOPIN 320 432 In
FLAG 96 656 VDD
IOPIN 96 656 In
SYMBOL MUX2to1 80 32 R0
SYMATTR InstName X1
SYMBOL MUX2to1 80 304 R0
SYMATTR InstName X2
SYMBOL MUX2to1 400 176 R0
SYMATTR InstName X3
