Version 4.1
SHEET 1 1428 904
WIRE 32 -192 -128 -192
WIRE 384 -192 256 -192
WIRE 768 -176 640 -176
WIRE 1152 -176 1024 -176
WIRE 32 -160 -80 -160
WIRE 384 -160 304 -160
WIRE 768 -144 688 -144
WIRE 1152 -144 1072 -144
WIRE 32 -128 -128 -128
WIRE 384 -128 256 -128
WIRE 768 -112 640 -112
WIRE 1152 -112 1024 -112
WIRE 32 -96 -80 -96
WIRE 384 -96 304 -96
WIRE 768 -80 688 -80
WIRE 1152 -80 1072 -80
WIRE 32 -64 -128 -64
WIRE 384 -64 256 -64
WIRE 768 -48 640 -48
WIRE 1152 -48 1024 -48
WIRE 32 -32 -80 -32
WIRE 384 -32 304 -32
WIRE 208 -16 160 -16
WIRE 544 -16 512 -16
WIRE 768 -16 688 -16
WIRE 1152 -16 1072 -16
WIRE 32 0 -128 0
WIRE 384 0 256 0
WIRE 928 0 896 0
WIRE 1328 0 1280 0
WIRE 768 16 640 16
WIRE 1152 16 1024 16
WIRE 32 32 -80 32
WIRE 384 32 304 32
WIRE 768 48 688 48
WIRE 1152 48 1072 48
WIRE 32 64 -320 64
WIRE 384 64 240 64
WIRE 768 80 592 80
WIRE 1152 80 976 80
WIRE 32 96 -288 96
WIRE 384 96 272 96
WIRE 768 112 624 112
WIRE 1152 112 1024 112
WIRE 32 128 -240 128
WIRE 384 128 304 128
WIRE 768 144 688 144
WIRE 1152 144 1072 144
WIRE 32 160 -144 160
WIRE 384 160 352 160
WIRE 768 176 720 176
WIRE 1152 176 1104 176
WIRE 208 240 208 -16
WIRE 544 240 544 -16
WIRE 928 240 928 0
WIRE 1328 240 1328 0
WIRE -144 448 -144 160
WIRE 352 448 352 160
WIRE 352 448 -144 448
WIRE 432 448 352 448
WIRE 720 448 720 176
WIRE 720 448 432 448
WIRE 1104 448 1104 176
WIRE 1104 448 720 448
WIRE 432 480 432 448
WIRE -240 560 -240 128
WIRE 304 560 304 128
WIRE 304 560 -240 560
WIRE 416 560 304 560
WIRE 688 560 688 144
WIRE 688 560 416 560
WIRE 1072 560 1072 144
WIRE 1072 560 688 560
WIRE 416 576 416 560
WIRE -288 640 -288 96
WIRE 272 640 272 96
WIRE 272 640 -288 640
WIRE 416 640 272 640
WIRE 624 640 624 112
WIRE 624 640 416 640
WIRE 1024 640 1024 112
WIRE 1024 640 624 640
WIRE 416 656 416 640
WIRE -320 720 -320 64
WIRE 240 720 240 64
WIRE 240 720 -320 720
WIRE 400 720 240 720
WIRE 592 720 592 80
WIRE 592 720 400 720
WIRE 976 720 976 80
WIRE 976 720 592 720
WIRE 400 816 400 720
FLAG -128 -192 D0_0
IOPIN -128 -192 In
FLAG -80 -160 D1_0
IOPIN -80 -160 In
FLAG -128 -128 D2_0
IOPIN -128 -128 In
FLAG -80 -96 D3_0
IOPIN -80 -96 In
FLAG -128 -64 D4_0
IOPIN -128 -64 In
FLAG -80 -32 D5_0
IOPIN -80 -32 In
FLAG -128 0 D6_0
IOPIN -128 0 In
FLAG -80 32 D7_0
IOPIN -80 32 In
FLAG 256 -192 D0_1
IOPIN 256 -192 In
FLAG 304 -160 D1_1
IOPIN 304 -160 In
FLAG 256 -128 D2_1
IOPIN 256 -128 In
FLAG 304 -96 D3_1
IOPIN 304 -96 In
FLAG 256 -64 D4_1
IOPIN 256 -64 In
FLAG 304 -32 D5_1
IOPIN 304 -32 In
FLAG 256 0 D6_1
IOPIN 256 0 In
FLAG 304 32 D7_1
IOPIN 304 32 In
FLAG 640 -176 D0_2
IOPIN 640 -176 In
FLAG 688 -144 D1_2
IOPIN 688 -144 In
FLAG 640 -112 D2_2
IOPIN 640 -112 In
FLAG 688 -80 D3_2
IOPIN 688 -80 In
FLAG 640 -48 D4_2
IOPIN 640 -48 In
FLAG 688 -16 D5_2
IOPIN 688 -16 In
FLAG 640 16 D6_2
IOPIN 640 16 In
FLAG 688 48 D7_2
IOPIN 688 48 In
FLAG 1024 -176 D0_3
IOPIN 1024 -176 In
FLAG 1072 -144 D1_3
IOPIN 1072 -144 In
FLAG 1024 -112 D2_3
IOPIN 1024 -112 In
FLAG 1072 -80 D3_3
IOPIN 1072 -80 In
FLAG 1024 -48 D4_3
IOPIN 1024 -48 In
FLAG 1072 -16 D5_3
IOPIN 1072 -16 In
FLAG 1024 16 D6_3
IOPIN 1024 16 In
FLAG 1072 48 D7_3
IOPIN 1072 48 In
FLAG 208 240 OUT_0
IOPIN 208 240 Out
FLAG 544 240 OUT_1
IOPIN 544 240 Out
FLAG 928 240 OUT_2
IOPIN 928 240 Out
FLAG 1328 240 OUT_3
IOPIN 1328 240 Out
FLAG 400 816 S0
IOPIN 400 816 In
FLAG 416 656 S1
IOPIN 416 656 In
FLAG 416 576 S2
IOPIN 416 576 In
FLAG 432 480 VDD
IOPIN 432 480 In
SYMBOL MUX8to1 96 -16 R0
SYMATTR InstName X1
SYMBOL MUX8to1 448 -16 R0
SYMATTR InstName X2
SYMBOL MUX8to1 832 0 R0
SYMATTR InstName X3
SYMBOL MUX8to1 1216 0 R0
SYMATTR InstName X4
