Version 4.1
SHEET 1 972 892
WIRE 128 -80 -112 -80
WIRE 128 -48 -48 -48
WIRE 128 -16 0 -16
WIRE 128 16 48 16
WIRE 464 16 256 16
WIRE 128 48 64 48
WIRE 128 80 96 80
WIRE 128 112 -192 112
WIRE 464 128 464 16
WIRE 512 128 464 128
WIRE 512 160 464 160
WIRE 768 176 640 176
WIRE 512 192 400 192
WIRE 64 224 64 48
WIRE 64 224 -240 224
WIRE 512 224 480 224
WIRE 96 272 96 80
WIRE 96 272 -352 272
WIRE 128 336 -112 336
WIRE 128 368 -48 368
WIRE 128 400 0 400
WIRE 128 432 48 432
WIRE 464 432 464 160
WIRE 464 432 256 432
WIRE 64 464 64 224
WIRE 128 464 64 464
WIRE 96 496 96 272
WIRE 128 496 96 496
WIRE 128 528 16 528
WIRE -192 656 -192 112
WIRE 16 656 16 528
WIRE 16 656 -192 656
WIRE 144 656 16 656
WIRE 480 656 480 224
WIRE 480 656 144 656
WIRE 144 784 144 656
FLAG -112 -80 D0
IOPIN -112 -80 In
FLAG -48 -48 D1
IOPIN -48 -48 In
FLAG 0 -16 D2
IOPIN 0 -16 In
FLAG 48 16 D3
IOPIN 48 16 In
FLAG -112 336 D4
IOPIN -112 336 In
FLAG -48 368 D5
IOPIN -48 368 In
FLAG 0 400 D6
IOPIN 0 400 In
FLAG 48 432 D7
IOPIN 48 432 In
FLAG -240 224 S0
IOPIN -240 224 In
FLAG -352 272 S1
IOPIN -352 272 In
FLAG 768 176 OUT
IOPIN 768 176 Out
FLAG 400 192 S2
IOPIN 400 192 In
FLAG 144 784 VDD
IOPIN 144 784 In
SYMBOL MUX4to1 192 16 R0
SYMATTR InstName X1
SYMBOL MUX4to1 192 432 R0
SYMATTR InstName X2
SYMBOL MUX2to1 576 176 R0
SYMATTR InstName X3
