Version 4.1
SHEET 1 1100 680
WIRE -16 128 -16 -16
WIRE 16 128 -16 128
WIRE 256 128 256 -16
WIRE 288 128 256 128
WIRE 528 128 528 -16
WIRE 560 128 528 128
WIRE 816 128 816 -16
WIRE 848 128 816 128
WIRE 16 160 -16 160
WIRE 192 160 160 160
WIRE 288 160 256 160
WIRE 464 160 432 160
WIRE 560 160 528 160
WIRE 736 160 704 160
WIRE 848 160 816 160
WIRE 1024 160 992 160
WIRE 16 192 -16 192
WIRE 288 192 256 192
WIRE 560 192 528 192
WIRE 848 192 816 192
WIRE 192 256 192 160
WIRE 464 256 464 160
WIRE 736 256 736 160
WIRE 1024 256 1024 160
WIRE -16 400 -16 192
WIRE 256 400 256 192
WIRE 256 400 -16 400
WIRE 400 400 256 400
WIRE 528 400 528 192
WIRE 528 400 400 400
WIRE 816 400 816 192
WIRE 816 400 528 400
WIRE 400 528 400 400
FLAG -16 -16 A0
IOPIN -16 -16 In
FLAG 256 -16 A1
IOPIN 256 -16 In
FLAG 528 -16 A2
IOPIN 528 -16 In
FLAG 816 -16 A3
IOPIN 816 -16 In
FLAG -16 160 B0
IOPIN -16 160 In
FLAG 256 160 B1
IOPIN 256 160 In
FLAG 528 160 B2
IOPIN 528 160 In
FLAG 816 160 B3
IOPIN 816 160 In
FLAG 192 256 Y0
IOPIN 192 256 Out
FLAG 464 256 Y1
IOPIN 464 256 Out
FLAG 736 256 Y2
IOPIN 736 256 Out
FLAG 1024 256 Y3
IOPIN 1024 256 Out
FLAG 400 528 VDD
IOPIN 400 528 In
SYMBOL NOR2 80 160 R0
SYMATTR InstName X1
SYMBOL NOR2 352 160 R0
SYMATTR InstName X2
SYMBOL NOR2 624 160 R0
SYMATTR InstName X3
SYMBOL NOR2 912 160 R0
SYMATTR InstName X4
