Version 4.1
SHEET 1 880 680
WIRE -16 128 -80 128
WIRE -16 160 -112 160
WIRE 256 160 128 160
WIRE 560 176 384 176
WIRE -16 192 -48 192
WIRE 256 192 208 192
WIRE -48 256 -48 192
WIRE 96 256 -48 256
WIRE 208 256 208 192
WIRE 208 256 96 256
WIRE 96 320 96 256
FLAG -80 128 IN1
IOPIN -80 128 In
FLAG -112 160 IN2
IOPIN -112 160 In
FLAG 560 176 OUT
IOPIN 560 176 Out
FLAG 96 320 VDD
IOPIN 96 320 In
SYMBOL NOT1 320 176 R0
SYMATTR InstName X2
SYMBOL NOR2 48 160 R0
SYMATTR InstName X1
