Version 4.1
SHEET 1 880 824
WIRE 48 -112 -80 -112
WIRE 336 -112 304 -112
WIRE 304 -96 304 -112
WIRE 304 -96 176 -96
WIRE 608 -96 464 -96
WIRE 48 -80 0 -80
WIRE 336 -80 320 -80
WIRE 0 -16 0 -80
WIRE 240 -16 0 -16
WIRE 320 -16 320 -80
WIRE 320 -16 240 -16
WIRE 64 112 -48 112
WIRE 336 112 256 112
WIRE 256 128 256 112
WIRE 256 128 192 128
WIRE 624 128 464 128
WIRE 64 144 32 144
WIRE 336 144 304 144
WIRE 32 208 32 144
WIRE 240 208 240 -16
WIRE 240 208 32 208
WIRE 304 208 304 144
WIRE 304 208 240 208
WIRE 64 304 -48 304
WIRE 336 304 256 304
WIRE 256 320 256 304
WIRE 256 320 192 320
WIRE 624 320 464 320
WIRE 64 336 16 336
WIRE 336 336 304 336
WIRE 16 416 16 336
WIRE 240 416 240 208
WIRE 240 416 16 416
WIRE 304 416 304 336
WIRE 304 416 240 416
WIRE 240 448 240 416
WIRE 240 448 -240 448
WIRE 64 512 -48 512
WIRE 336 512 256 512
WIRE 256 528 256 512
WIRE 256 528 192 528
WIRE 624 528 464 528
WIRE 64 544 16 544
WIRE 336 544 320 544
WIRE 16 608 16 544
WIRE 240 608 240 448
WIRE 240 608 16 608
WIRE 320 608 320 544
WIRE 320 608 240 608
WIRE 64 704 -48 704
WIRE 336 704 256 704
WIRE 256 720 256 704
WIRE 256 720 192 720
WIRE 624 720 464 720
WIRE 64 736 16 736
WIRE 336 736 304 736
WIRE 16 816 16 736
WIRE 240 816 240 608
WIRE 240 816 16 816
WIRE 304 816 304 736
WIRE 304 816 240 816
FLAG -48 112 A0
IOPIN -48 112 In
FLAG -48 304 A1
IOPIN -48 304 In
FLAG -48 512 A2
IOPIN -48 512 In
FLAG -48 704 A3
IOPIN -48 704 In
FLAG 624 128 Y1
IOPIN 624 128 Out
FLAG 624 320 Y2
IOPIN 624 320 Out
FLAG 624 528 Y3
IOPIN 624 528 Out
FLAG 624 720 MSB_OUT
IOPIN 624 720 Out
FLAG -240 448 VDD
IOPIN -240 448 In
FLAG -80 -112 0
FLAG 608 -96 Y0
IOPIN 608 -96 Out
SYMBOL NOT1 128 128 R0
SYMATTR InstName X1
SYMBOL NOT1 400 128 R0
SYMATTR InstName X2
SYMBOL NOT1 128 320 R0
SYMATTR InstName X3
SYMBOL NOT1 400 320 R0
SYMATTR InstName X4
SYMBOL NOT1 128 528 R0
SYMATTR InstName X5
SYMBOL NOT1 400 528 R0
SYMATTR InstName X6
SYMBOL NOT1 128 720 R0
SYMATTR InstName X7
SYMBOL NOT1 400 720 R0
SYMATTR InstName X8
SYMBOL NOT1 112 -96 R0
SYMATTR InstName X9
SYMBOL NOT1 400 -96 R0
SYMATTR InstName X10
