Version 4.1
SHEET 1 2364 1180
WIRE 208 -560 64 -560
WIRE 208 -528 -160 -528
WIRE 496 -512 336 -512
WIRE 208 -496 64 -496
WIRE 208 -464 -160 -464
WIRE 208 -224 64 -224
WIRE 208 -192 -160 -192
WIRE 496 -176 336 -176
WIRE 208 -160 64 -160
WIRE 1648 -160 1536 -160
WIRE 1968 -160 1856 -160
WIRE 1856 -144 1856 -160
WIRE 1856 -144 1776 -144
WIRE 2224 -144 2096 -144
WIRE 208 -128 -160 -128
WIRE 1648 -128 1600 -128
WIRE 1968 -128 1920 -128
WIRE 224 16 80 16
WIRE 224 48 80 48
WIRE 224 80 80 80
WIRE 288 112 80 112
WIRE 288 128 288 112
WIRE 528 128 288 128
WIRE 848 128 704 128
WIRE 224 144 80 144
WIRE 704 144 704 128
WIRE 704 144 656 144
WIRE 1088 144 976 144
WIRE 528 160 496 160
WIRE 848 160 816 160
WIRE 1776 160 1712 160
WIRE 224 176 80 176
WIRE 1776 192 1648 192
WIRE 2016 192 1904 192
WIRE 224 208 80 208
WIRE 1776 224 1712 224
WIRE 224 240 80 240
WIRE -1344 272 -1568 272
WIRE -496 272 -752 272
WIRE 224 272 80 272
WIRE -1344 304 -1488 304
WIRE -1072 304 -1216 304
WIRE -496 304 -688 304
WIRE -272 304 -368 304
WIRE 224 304 80 304
WIRE -1344 336 -1568 336
WIRE -496 336 -752 336
WIRE 224 336 80 336
WIRE 224 368 80 368
WIRE 224 400 80 400
WIRE 528 464 480 464
WIRE 528 496 416 496
WIRE 784 496 656 496
WIRE -1360 528 -1568 528
WIRE -496 528 -752 528
WIRE 528 528 352 528
WIRE -1360 560 -1488 560
WIRE -1072 560 -1232 560
WIRE -496 560 -688 560
WIRE -272 560 -368 560
WIRE -1360 592 -1568 592
WIRE -496 592 -752 592
WIRE 784 608 784 496
WIRE 816 608 784 608
WIRE 1120 624 976 624
WIRE 816 640 784 640
WIRE 976 640 976 624
WIRE 976 640 944 640
WIRE 1296 640 1248 640
WIRE 1120 656 1072 656
WIRE 816 672 720 672
WIRE 528 752 480 752
WIRE -1360 784 -1568 784
WIRE -512 784 -752 784
WIRE 528 784 416 784
WIRE 784 784 784 640
WIRE 784 784 656 784
WIRE -1360 816 -1488 816
WIRE -1072 816 -1232 816
WIRE -512 816 -688 816
WIRE -272 816 -384 816
WIRE 528 816 352 816
WIRE -1360 848 -1568 848
WIRE -512 848 -752 848
WIRE -1072 1088 -1216 1088
WIRE -816 1104 -944 1104
WIRE -1072 1120 -1152 1120
FLAG 80 16 C0
IOPIN 80 16 In
FLAG 80 48 C1
IOPIN 80 48 In
FLAG 80 80 C2
IOPIN 80 80 In
FLAG 80 112 C3
IOPIN 80 112 In
FLAG 80 144 ADD_COUT
IOPIN 80 144 In
FLAG 80 176 SHIFT_MSB
IOPIN 80 176 In
FLAG 80 208 A3
IOPIN 80 208 In
FLAG 80 240 B3
IOPIN 80 240 In
FLAG 80 272 S0
IOPIN 80 272 In
FLAG 80 304 S1
IOPIN 80 304 In
FLAG 80 336 S2
IOPIN 80 336 In
FLAG 80 368 VDD
IOPIN 80 368 In
FLAG 1088 144 N
IOPIN 1088 144 Out
FLAG 496 160 VDD
FLAG 816 160 VDD
FLAG 480 464 C0
FLAG 416 496 C1
FLAG 480 752 C2
FLAG 416 784 C3
FLAG 1296 640 Z
IOPIN 1296 640 Out
FLAG 352 528 VDD
FLAG 352 816 VDD
FLAG 720 672 VDD
FLAG 1072 656 VDD
FLAG 1712 160 S1
FLAG 1648 192 S0
FLAG 2016 192 SEL_SHIFT
FLAG 1712 224 VDD
FLAG 1536 -160 0
FLAG 2224 -144 ZERO_BUF
FLAG 1600 -128 VDD
FLAG 1920 -128 VDD
FLAG 64 -224 ADD_COUT
FLAG -160 -192 SHIFT_MSB
FLAG 64 -160 SEL_SHIFT
FLAG 496 -176 ARITH_OR_SHIFT_C
FLAG -160 -128 VDD
FLAG 64 -560 ZERO_BUF
FLAG -160 -528 ARITH_OR_SHIFT_C
FLAG 64 -496 S2
FLAG 496 -512 C
IOPIN 496 -512 Out
FLAG -160 -464 VDD
FLAG 80 400 SUB
IOPIN 80 400 In
FLAG -1568 272 A3
FLAG -1488 304 C3
FLAG -1072 304 XOR_AC_OUT
FLAG -1568 336 VDD
FLAG -1568 528 B3
FLAG -1488 560 SUB
FLAG -1568 592 VDD
FLAG -1072 560 XOR_BS_OUT
FLAG -1568 784 XOR_BS_OUT
FLAG -1488 816 C3
FLAG -1568 848 VDD
FLAG -1072 816 XOR_BSC_OUT
FLAG -752 272 XOR_AC_OUT
FLAG -688 304 XOR_BSC_OUT
FLAG -752 336 VDD
FLAG -272 304 V_RAW
FLAG -1216 1088 SEL_SHIFT
FLAG -816 1104 nSEL_SHIFT
FLAG -1152 1120 VDD
FLAG -752 528 S2
FLAG -688 560 nSEL_SHIFT
FLAG -752 592 VDD
FLAG -272 560 MASK_ARITH
FLAG -752 784 V_RAW
FLAG -688 816 MASK_ARITH
FLAG -752 848 VDD
FLAG -272 816 V
IOPIN -272 816 Out
SYMBOL NOT1 592 144 R0
SYMATTR InstName X1
SYMBOL NOT1 912 144 R0
SYMATTR InstName X2
SYMBOL OR2 592 496 R0
SYMATTR InstName X3
SYMBOL OR2 592 784 R0
SYMATTR InstName X4
SYMBOL OR2 880 640 R0
SYMATTR InstName X5
SYMBOL NOT1 1184 640 R0
SYMATTR InstName X6
SYMBOL AND2 1840 192 R0
SYMATTR InstName X7
SYMBOL NOT1 1712 -144 R0
SYMATTR InstName X8
SYMBOL NOT1 2032 -144 R0
SYMATTR InstName X9
SYMBOL MUX2to1 272 -176 R0
SYMATTR InstName X10
SYMBOL MUX2to1 272 -512 R0
SYMATTR InstName X11
SYMBOL XOR2 -1280 304 R0
SYMATTR InstName X12
SYMBOL XOR2 -1296 560 R0
SYMATTR InstName X13
SYMBOL XOR2 -1296 816 R0
SYMATTR InstName X14
SYMBOL AND2 -432 304 R0
SYMATTR InstName X15
SYMBOL AND2 -432 560 R0
SYMATTR InstName X16
SYMBOL AND2 -448 816 R0
SYMATTR InstName X17
SYMBOL NOT1 -1008 1104 R0
SYMATTR InstName X18
