Version 4.1
SHEET 1 880 680
WIRE 160 -48 0 -48
WIRE 0 48 0 32
WIRE 144 80 -16 80
WIRE 144 112 144 80
WIRE 176 112 144 112
WIRE 176 144 112 144
WIRE -16 160 -64 160
WIRE 368 160 304 160
WIRE -64 176 -64 160
WIRE 112 176 112 144
WIRE 112 176 -32 176
WIRE 160 176 160 -48
WIRE 176 176 160 176
WIRE -32 208 -32 176
WIRE 176 208 160 208
WIRE -32 288 -48 288
WIRE -48 304 -48 288
WIRE 160 320 160 208
WIRE 160 320 -32 320
WIRE -32 352 -32 320
WIRE -32 464 -32 432
FLAG 368 160 OUT
FLAG 0 48 0
FLAG -64 176 0
FLAG -48 304 0
FLAG -32 464 0
SYMBOL MUX2to1 240 160 R0
SYMATTR InstName X1
SYMBOL voltage 0 -64 R0
WINDOW 123 0 0 Left 0
WINDOW 39 0 0 Left 0
SYMATTR InstName V1
SYMATTR Value 5
SYMBOL voltage -16 64 R0
WINDOW 123 0 0 Left 0
WINDOW 39 0 0 Left 0
SYMATTR InstName V2
SYMATTR Value 5
SYMBOL voltage -32 192 R0
WINDOW 123 0 0 Left 0
WINDOW 39 0 0 Left 0
SYMATTR InstName V3
SYMATTR Value 0
SYMBOL voltage -32 336 R0
WINDOW 123 0 0 Left 0
WINDOW 39 0 0 Left 0
SYMATTR InstName V4
SYMATTR Value 5
TEXT 360 -24 Left 2 !.tran 10m
