Version 4.1
SHEET 1 880 680
WIRE 112 -80 -672 -80
WIRE 96 -64 -544 -64
WIRE 80 -48 -400 -48
WIRE 64 -32 -256 -32
WIRE -672 48 -672 -80
WIRE -544 48 -544 -64
WIRE -400 48 -400 -48
WIRE -256 48 -256 -32
WIRE 112 48 112 -80
WIRE 128 48 112 48
WIRE 96 80 96 -64
WIRE 128 80 96 80
WIRE 80 112 80 -48
WIRE 128 112 80 112
WIRE 608 112 272 112
WIRE 64 144 64 -32
WIRE 128 144 64 144
WIRE 416 144 272 144
WIRE -672 160 -672 128
WIRE -544 160 -544 128
WIRE -400 160 -400 128
WIRE -256 160 -256 128
WIRE 128 176 -128 176
WIRE 608 176 272 176
WIRE -128 208 -128 176
WIRE -128 208 -656 208
WIRE 128 208 -112 208
WIRE 448 208 272 208
WIRE -112 224 -112 208
WIRE -112 224 -544 224
WIRE 128 240 -416 240
WIRE 608 240 272 240
WIRE 128 272 -272 272
WIRE 128 304 -48 304
WIRE -656 368 -656 208
WIRE -544 368 -544 224
WIRE -416 368 -416 240
WIRE -272 368 -272 272
WIRE -48 384 -48 304
WIRE -656 496 -656 448
WIRE -544 496 -544 448
WIRE -416 496 -416 448
WIRE -272 496 -272 448
WIRE -48 528 -48 464
FLAG -672 160 0
FLAG -544 160 0
FLAG -400 160 0
FLAG -256 160 0
FLAG -656 496 0
FLAG -544 496 0
FLAG -416 496 0
FLAG -272 496 0
FLAG -48 528 0
FLAG 416 144 S0
FLAG 608 112 COUT
FLAG 608 176 S1
FLAG 448 208 S2
FLAG 608 240 S3
SYMBOL Adder4bit 192 176 R0
SYMATTR InstName X1
SYMBOL voltage -672 32 R0
WINDOW 123 0 0 Left 0
WINDOW 39 0 0 Left 0
SYMATTR InstName V1
SYMATTR Value 5
SYMBOL voltage -544 32 R0
WINDOW 123 0 0 Left 0
WINDOW 39 0 0 Left 0
SYMATTR InstName V2
SYMATTR Value 5
SYMBOL voltage -400 32 R0
WINDOW 123 0 0 Left 0
WINDOW 39 0 0 Left 0
SYMATTR InstName V3
SYMATTR Value 0
SYMBOL voltage -256 32 R0
WINDOW 123 0 0 Left 0
WINDOW 39 0 0 Left 0
SYMATTR InstName V4
SYMATTR Value 0
SYMBOL voltage -544 352 R0
WINDOW 123 0 0 Left 0
WINDOW 39 0 0 Left 0
SYMATTR InstName V6
SYMATTR Value 0
SYMBOL voltage -416 352 R0
WINDOW 123 0 0 Left 0
WINDOW 39 0 0 Left 0
SYMATTR InstName V7
SYMATTR Value 5
SYMBOL voltage -272 352 R0
WINDOW 123 0 0 Left 0
WINDOW 39 0 0 Left 0
SYMATTR InstName V8
SYMATTR Value 0
SYMBOL voltage -656 352 R0
WINDOW 123 0 0 Left 0
WINDOW 39 0 0 Left 0
SYMATTR InstName V5
SYMATTR Value 5
SYMBOL voltage -48 368 R0
WINDOW 123 0 0 Left 0
WINDOW 39 0 0 Left 0
SYMATTR InstName V9
SYMATTR Value 5
TEXT 336 -80 Left 2 !.tran 10m
