Version 4.1
SHEET 1 880 680
WIRE 336 80 256 80
WIRE 256 144 256 80
WIRE 288 144 256 144
WIRE 288 160 288 144
WIRE 320 160 288 160
WIRE 336 176 336 160
WIRE 256 192 176 192
WIRE 304 192 256 192
WIRE 304 224 304 192
WIRE 544 240 432 240
WIRE 320 256 320 160
WIRE 320 256 304 256
WIRE 336 256 320 256
WIRE 176 320 176 272
FLAG 176 320 0
FLAG 544 240 OUT
FLAG 256 192 IN
FLAG 336 176 0
SYMBOL NOT1 368 240 R0
SYMATTR InstName X1
SYMBOL voltage 176 176 R0
WINDOW 123 0 0 Left 0
WINDOW 39 0 0 Left 0
SYMATTR InstName V1
SYMATTR Value PULSE(0 5 0 1n 1n 5m 10m)
SYMBOL voltage 336 64 R0
WINDOW 123 0 0 Left 0
WINDOW 39 0 0 Left 0
SYMATTR InstName V2
SYMATTR Value 5
TEXT 464 120 Left 2 !.tran 50m
