Version 4.1
SHEET 1 880 680
WIRE 80 -48 -480 -48
WIRE 64 -32 -336 -32
WIRE 48 -16 -176 -16
WIRE -480 16 -480 -48
WIRE -336 16 -336 -32
WIRE -176 16 -176 -16
WIRE 32 16 -48 16
WIRE 80 32 80 -48
WIRE 112 32 80 32
WIRE 64 64 64 -32
WIRE 112 64 64 64
WIRE 48 96 48 -16
WIRE 112 96 48 96
WIRE 496 112 256 112
WIRE 32 128 32 16
WIRE 112 128 32 128
WIRE -480 144 -480 96
WIRE -336 144 -336 96
WIRE -176 144 -176 96
WIRE -48 144 -48 96
WIRE 368 144 256 144
WIRE 112 160 0 160
WIRE 0 176 0 160
WIRE 0 176 -640 176
WIRE 496 176 256 176
WIRE 112 192 -464 192
WIRE 368 208 256 208
WIRE 112 224 -304 224
WIRE 496 240 256 240
WIRE 112 256 -160 256
WIRE 112 288 -64 288
WIRE 112 320 -32 320
WIRE -640 384 -640 176
WIRE -464 384 -464 192
WIRE -304 384 -304 224
WIRE -160 384 -160 256
WIRE -640 496 -640 464
WIRE -464 496 -464 464
WIRE -304 496 -304 464
WIRE -160 496 -160 464
WIRE -64 528 -64 288
WIRE -64 528 -160 528
WIRE -160 544 -160 528
WIRE -32 544 -32 320
WIRE -160 656 -160 624
WIRE -32 656 -32 624
FLAG -480 144 0
FLAG -336 144 0
FLAG -176 144 0
FLAG -48 144 0
FLAG -160 496 0
FLAG -304 496 0
FLAG -464 496 0
FLAG -640 496 0
FLAG -160 656 0
FLAG -32 656 0
FLAG 368 144 S0
FLAG 496 176 S1
FLAG 368 208 S2
FLAG 496 240 S3
FLAG 496 112 COUT
SYMBOL AddSub4bit 176 176 R0
SYMATTR InstName X1
SYMBOL voltage -480 0 R0
WINDOW 123 0 0 Left 0
WINDOW 39 0 0 Left 0
SYMATTR InstName V1
SYMATTR Value 5
SYMBOL voltage -336 0 R0
WINDOW 123 0 0 Left 0
WINDOW 39 0 0 Left 0
SYMATTR InstName V2
SYMATTR Value 0
SYMBOL voltage -176 0 R0
WINDOW 123 0 0 Left 0
WINDOW 39 0 0 Left 0
SYMATTR InstName V3
SYMATTR Value 5
SYMBOL voltage -48 0 R0
WINDOW 123 0 0 Left 0
WINDOW 39 0 0 Left 0
SYMATTR InstName V4
SYMATTR Value 0
SYMBOL voltage -640 368 R0
WINDOW 123 0 0 Left 0
WINDOW 39 0 0 Left 0
SYMATTR InstName V5
SYMATTR Value 5
SYMBOL voltage -464 368 R0
WINDOW 123 0 0 Left 0
WINDOW 39 0 0 Left 0
SYMATTR InstName V6
SYMATTR Value 5
SYMBOL voltage -304 368 R0
WINDOW 123 0 0 Left 0
WINDOW 39 0 0 Left 0
SYMATTR InstName V7
SYMATTR Value 0
SYMBOL voltage -160 368 R0
WINDOW 123 0 0 Left 0
WINDOW 39 0 0 Left 0
SYMATTR InstName V8
SYMATTR Value 0
SYMBOL voltage -160 528 R0
WINDOW 123 0 0 Left 0
WINDOW 39 0 0 Left 0
SYMATTR InstName V9
SYMATTR Value 5
SYMBOL voltage -32 528 R0
WINDOW 123 0 0 Left 0
WINDOW 39 0 0 Left 0
SYMATTR InstName V10
SYMATTR Value 5
TEXT 360 -40 Left 2 !.tran 10m
