Version 4.1
SHEET 1 880 680
WIRE 32 -160 -240 -160
WIRE -240 -128 -240 -160
WIRE -240 -32 -240 -48
WIRE 0 0 -256 0
WIRE -256 32 -256 0
WIRE 32 64 32 -160
WIRE 64 64 32 64
WIRE 352 64 256 64
WIRE 0 96 0 0
WIRE 64 96 0 96
WIRE 352 96 256 96
WIRE -256 112 -288 112
WIRE -288 128 -288 112
WIRE 64 128 -256 128
WIRE 352 128 256 128
WIRE 64 160 -144 160
WIRE 352 160 256 160
WIRE -256 192 -256 128
WIRE 64 192 0 192
WIRE 352 192 256 192
WIRE 0 240 0 192
WIRE 64 240 0 240
WIRE -256 272 -288 272
WIRE -288 288 -288 272
WIRE -144 304 -144 160
WIRE -144 304 -256 304
WIRE -256 352 -256 304
WIRE 64 352 64 240
WIRE -256 464 -256 432
WIRE 64 464 64 432
FLAG 352 64 MSB_OUT
FLAG 352 96 Y0
FLAG 352 128 Y1
FLAG 352 160 Y2
FLAG 352 192 Y3
FLAG -240 -32 0
FLAG -288 128 0
FLAG -288 288 0
FLAG -256 464 0
FLAG 64 464 0
SYMBOL Shift4bit 160 128 R0
SYMATTR InstName X1
SYMBOL voltage -240 -144 R0
WINDOW 123 0 0 Left 0
WINDOW 39 0 0 Left 0
SYMATTR InstName V1
SYMATTR Value 0
SYMBOL voltage -256 16 R0
WINDOW 123 0 0 Left 0
WINDOW 39 0 0 Left 0
SYMATTR InstName V2
SYMATTR Value 5
SYMBOL voltage -256 176 R0
WINDOW 123 0 0 Left 0
WINDOW 39 0 0 Left 0
SYMATTR InstName V3
SYMATTR Value 5
SYMBOL voltage -256 336 R0
WINDOW 123 0 0 Left 0
WINDOW 39 0 0 Left 0
SYMATTR InstName V4
SYMATTR Value 0
SYMBOL voltage 64 336 R0
WINDOW 123 0 0 Left 0
WINDOW 39 0 0 Left 0
SYMATTR InstName V5
SYMATTR Value 5
TEXT 272 -128 Left 2 !.tran 1m
