Version 4.1
SHEET 1 880 680
WIRE 128 -192 -208 -192
WIRE -208 -112 -272 -112
WIRE -272 -96 -272 -112
WIRE 112 -80 -208 -80
WIRE -208 16 -208 0
WIRE 96 48 -208 48
WIRE 128 48 128 -192
WIRE 144 48 128 48
WIRE 112 80 112 -80
WIRE 144 80 112 80
WIRE 96 112 96 48
WIRE 144 112 96 112
WIRE -208 128 -240 128
WIRE -240 144 -240 128
WIRE 144 144 112 144
WIRE 368 144 272 144
WIRE 112 160 112 144
WIRE 112 160 -208 160
WIRE -208 176 -208 160
WIRE 144 176 -64 176
WIRE 144 208 32 208
WIRE 144 240 128 240
WIRE -208 256 -224 256
WIRE -224 272 -224 256
WIRE -64 288 -64 176
WIRE -64 288 -208 288
WIRE -208 304 -208 288
WIRE 32 320 32 208
WIRE 32 320 -80 320
WIRE -208 400 -208 384
WIRE -80 432 -80 320
WIRE -80 432 -208 432
WIRE 128 448 128 240
WIRE 128 448 -48 448
WIRE -208 528 -208 512
WIRE -48 544 -48 528
FLAG -272 -96 0
FLAG -208 16 0
FLAG -240 144 0
FLAG -224 272 0
FLAG -208 400 0
FLAG -208 528 0
FLAG -48 544 0
FLAG 368 144 OUT
SYMBOL MUX4to1 208 144 R0
SYMATTR InstName X1
SYMBOL voltage -208 -208 R0
WINDOW 123 0 0 Left 0
WINDOW 39 0 0 Left 0
SYMATTR InstName V1
SYMATTR Value 0
SYMBOL voltage -208 -96 R0
WINDOW 123 0 0 Left 0
WINDOW 39 0 0 Left 0
SYMATTR InstName V2
SYMATTR Value 5
SYMBOL voltage -208 32 R0
WINDOW 123 0 0 Left 0
WINDOW 39 0 0 Left 0
SYMATTR InstName V3
SYMATTR Value 0
SYMBOL voltage -208 160 R0
WINDOW 123 0 0 Left 0
WINDOW 39 0 0 Left 0
SYMATTR InstName V4
SYMATTR Value 5
SYMBOL voltage -208 288 R0
WINDOW 123 0 0 Left 0
WINDOW 39 0 0 Left 0
SYMATTR InstName V5
SYMATTR Value 5
SYMBOL voltage -208 416 R0
WINDOW 123 0 0 Left 0
WINDOW 39 0 0 Left 0
SYMATTR InstName V6
SYMATTR Value 0
SYMBOL voltage -48 432 R0
WINDOW 123 0 0 Left 0
WINDOW 39 0 0 Left 0
SYMATTR InstName V7
SYMATTR Value 5
TEXT 376 -64 Left 2 !.tran 10m
