Version 4.1
SHEET 1 1228 764
WIRE 16 144 16 -64
WIRE 48 144 16 144
WIRE 304 144 304 -64
WIRE 336 144 304 144
WIRE 624 144 624 -64
WIRE 656 144 624 144
WIRE 944 144 944 -64
WIRE 976 144 944 144
WIRE 48 176 16 176
WIRE 224 176 176 176
WIRE 336 176 304 176
WIRE 512 176 464 176
WIRE 656 176 624 176
WIRE 832 176 784 176
WIRE 976 176 944 176
WIRE 1152 176 1104 176
WIRE 48 208 0 208
WIRE 336 208 288 208
WIRE 656 208 608 208
WIRE 976 208 928 208
WIRE 224 304 224 176
WIRE 512 304 512 176
WIRE 832 304 832 176
WIRE 1152 304 1152 176
WIRE 0 544 0 208
WIRE 288 544 288 208
WIRE 288 544 0 544
WIRE 464 544 288 544
WIRE 608 544 608 208
WIRE 608 544 464 544
WIRE 928 544 928 208
WIRE 928 544 608 544
WIRE 464 656 464 544
FLAG 16 -64 A0
IOPIN 16 -64 In
FLAG 304 -64 A1
IOPIN 304 -64 In
FLAG 624 -64 A2
IOPIN 624 -64 In
FLAG 944 -64 A3
IOPIN 944 -64 In
FLAG 464 656 VDD
IOPIN 464 656 In
FLAG 16 176 B0
IOPIN 16 176 In
FLAG 304 176 B1
IOPIN 304 176 In
FLAG 944 176 B3
IOPIN 944 176 In
FLAG 624 176 B2
IOPIN 624 176 In
FLAG 224 304 Y0
IOPIN 224 304 Out
FLAG 512 304 Y1
IOPIN 512 304 Out
FLAG 832 304 Y2
IOPIN 832 304 Out
FLAG 1152 304 Y3
IOPIN 1152 304 Out
SYMBOL XOR2 112 176 R0
SYMATTR InstName X1
SYMBOL XOR2 400 176 R0
SYMATTR InstName X2
SYMBOL XOR2 720 176 R0
SYMATTR InstName X3
SYMBOL XOR2 1040 176 R0
SYMATTR InstName X4
